
 *******************************************************************************

         NASA-GLENN CHEMICAL EQUILIBRIUM PROGRAM CEA, OCTOBER 18, 2002
                   BY  BONNIE MCBRIDE AND SANFORD GORDON
      REFS: NASA RP-1311, PART I, 1994 AND NASA RP-1311, PART II, 1996

 *******************************************************************************



 reac
  fuel C2H5OH(L)   C 2 H 6 O 1
  h,cal=-66370.0      t(k)=298.15       wt%=100.
  oxid NitrousOxide  N 2.0 O 1.0  wt%=100.00
  h,cal= 19467.0 t(k)=298.15
  
 prob case=RocketCEA,
  rocket equilibrium   p,psi=400.000000,  pi/p=400.000000,
  o/f=3.500000,
  
  
 output KJ  short  transport
  WARNING!!  DID NOT RECOGNIZE KJ              (INPUT)

 end






              THEORETICAL ROCKET PERFORMANCE ASSUMING EQUILIBRIUM

           COMPOSITION DURING EXPANSION FROM INFINITE AREA COMBUSTOR

 Pinj =   400.0 PSIA
 CASE = RocketCEA,     

             REACTANT                    WT FRACTION      ENERGY      TEMP
                                          (SEE NOTE)     KJ/KG-MOL      K  
 FUEL        C2H5OH(L)                    1.0000000   -277692.080    298.150
 OXIDANT     NitrousOxide                 1.0000000     81449.928    298.150

 O/F=    3.50000  %FUEL= 22.222222  R,EQ.RATIO= 1.501028  PHI,EQ.RATIO= 1.637792

                 CHAMBER   THROAT     EXIT
 Pinf/P            1.0000   1.7799   400.00
 P, BAR            27.579   15.495  0.06895
 T, K             2909.47  2650.61   914.18
 RHO, KG/CU M    2.7078 0 1.6767 0 2.1706-2
 H, KJ/KG          99.838  -460.05 -3564.15
 U, KJ/KG         -918.66 -1384.17 -3881.79
 G, KJ/KG        -30905.6 -28706.8 -13306.3
 S, KJ/(KG)(K)    10.6567  10.6567  10.6567

 M, (1/n)          23.751   23.848   23.929
 (dLV/dLP)t      -1.00391 -1.00175 -1.00003
 (dLV/dLT)p        1.0846   1.0406   1.0005
 Cp, KJ/(KG)(K)    2.4719   2.1393   1.7652
 GAMMAs            1.1943   1.2117   1.2453
 SON VEL,M/SEC     1102.9   1058.2    628.9
 MACH NUMBER        0.000    1.000    4.304

 TRANSPORT PROPERTIES (GASES ONLY)
   CONDUCTIVITY IN UNITS OF MILLIWATTS/(CM)(K)

 VISC,MILLIPOISE  0.90868  0.85143  0.40816

  WITH EQUILIBRIUM REACTIONS

 Cp, KJ/(KG)(K)    2.4719   2.1393   1.7652
 CONDUCTIVITY      4.5468   3.4354   1.1452
 PRANDTL NUMBER    0.4940   0.5302   0.6291

  WITH FROZEN REACTIONS

 Cp, KJ/(KG)(K)    1.8107   1.7922   1.5123
 CONDUCTIVITY      2.5480   2.3436   0.9891
 PRANDTL NUMBER    0.6457   0.6511   0.6241

 PERFORMANCE PARAMETERS

 Ae/At                      1.0000   30.196
 CSTAR, M/SEC               1554.4   1554.4
 CF                         0.6808   1.7416
 Ivac, M/SEC                1931.5   2824.4
 Isp, M/SEC                 1058.2   2707.0


 MOLE FRACTIONS

 CH4              0.00000  0.00000  0.00001
 *CO              0.17103  0.16844  0.08222
 *CO2             0.05811  0.06163  0.14864
 *H               0.00707  0.00378  0.00000
 *H2              0.09777  0.10017  0.18745
 H2O              0.23949  0.24182  0.15882
 *NO              0.00103  0.00034  0.00000
 *N2              0.41920  0.42126  0.42287
 *O               0.00024  0.00005  0.00000
 *OH              0.00581  0.00244  0.00000
 *O2              0.00023  0.00005  0.00000

  * THERMODYNAMIC PROPERTIES FITTED TO 20000.K

 NOTE. WEIGHT FRACTION OF FUEL IN TOTAL FUELS AND OF OXIDANT IN TOTAL OXIDANTS



